<?xml version="1.0" encoding="iso-8859-1"?>

<configuration xmlns:xsi="http://www.w3.org/2001/XMLSchema-instance" xsi:noNamespaceSchemaLocation="http://sumo.sf.net/xsd/sumoConfiguration.xsd">

    <input>
        <net-file 		  value="single_road_8lanes.net.xml"	/>
        <route-files 	  value="single_road_8lanes.rou.xml" />
    </input>

    <time>
        <begin value="0"/>
        <end value="710"/>
        <step-length value="0.001"/>
    </time>

    <report>
        <no-step-log value="true"/>
    </report>

    <gui_only>
        <start value="false"/>
    </gui_only>

</configuration>
