<?xml version="1.0" encoding="UTF-8"?>

<!-- generated on mié 27 feb 2019 15:22:16 CET by Netedit Version 0.29.0
<?xml version="1.0" encoding="UTF-8"?>

<configuration xmlns:xsi="http://www.w3.org/2001/XMLSchema-instance" xsi:noNamespaceSchemaLocation="http://sumo.dlr.de/xsd/netedit.exeConfiguration.xsd">

    <input>
        <sumo-net-file value="/home/wng/v2x-arch_11p/artery/scenarios/artery/my_roads/custom/two-way/16_lanes/single_road_16lanes.net.xml"/>
    </input>

    <output>
        <output-file value="/home/wng/v2x-arch_11p/artery/scenarios/artery/my_roads/custom/two-way/16_lanes/single_road_16lanes.net.xml"/>
    </output>

    <processing>
        <no-internal-links value="true"/>
        <no-turnarounds value="true"/>
        <offset.disable-normalization value="true"/>
        <lefthand value="false"/>
        <junctions.corner-detail value="0"/>
    </processing>

</configuration>
-->

<net version="0.27" xmlns:xsi="http://www.w3.org/2001/XMLSchema-instance" xsi:noNamespaceSchemaLocation="http://sumo.dlr.de/xsd/net_file.xsd">

    <location netOffset="0.00,0.00" convBoundary="0.00,0.00,1000.00,0.00" origBoundary="2.852656,41.882297,2.898048,41.899504" projParameter="+proj=utm +zone=31 +ellps=WGS84 +datum=WGS84 +units=m +no_defs"/>

    <edge id="-E0" from="J1" to="J0" priority="1">
        <lane id="-E0_0" index="0" allow="passenger" speed="33.33" length="1000.00" shape="1000.00,24.75 0.00,24.75"/>
        <lane id="-E0_1" index="1" allow="passenger" speed="33.33" length="1000.00" shape="1000.00,21.45 0.00,21.45"/>
        <lane id="-E0_2" index="2" allow="passenger" speed="33.33" length="1000.00" shape="1000.00,18.15 0.00,18.15"/>
        <lane id="-E0_3" index="3" allow="passenger" speed="33.33" length="1000.00" shape="1000.00,14.85 0.00,14.85"/>
        <lane id="-E0_4" index="4" allow="passenger" speed="33.33" length="1000.00" shape="1000.00,11.55 0.00,11.55"/>
        <lane id="-E0_5" index="5" allow="passenger" speed="33.33" length="1000.00" shape="1000.00,8.25 0.00,8.25"/>
        <lane id="-E0_6" index="6" allow="passenger" speed="33.33" length="1000.00" shape="1000.00,4.95 0.00,4.95"/>
        <lane id="-E0_7" index="7" allow="passenger" speed="33.33" length="1000.00" shape="1000.00,1.65 0.00,1.65"/>
    </edge>
    <edge id="E0" from="J0" to="J1" priority="1">
        <lane id="E0_0" index="0" allow="passenger" speed="33.33" length="1000.00" shape="0.00,-24.75 1000.00,-24.75"/>
        <lane id="E0_1" index="1" allow="passenger" speed="33.33" length="1000.00" shape="0.00,-21.45 1000.00,-21.45"/>
        <lane id="E0_2" index="2" allow="passenger" speed="33.33" length="1000.00" shape="0.00,-18.15 1000.00,-18.15"/>
        <lane id="E0_3" index="3" allow="passenger" speed="33.33" length="1000.00" shape="0.00,-14.85 1000.00,-14.85"/>
        <lane id="E0_4" index="4" allow="passenger" speed="33.33" length="1000.00" shape="0.00,-11.55 1000.00,-11.55"/>
        <lane id="E0_5" index="5" allow="passenger" speed="33.33" length="1000.00" shape="0.00,-8.25 1000.00,-8.25"/>
        <lane id="E0_6" index="6" allow="passenger" speed="33.33" length="1000.00" shape="0.00,-4.95 1000.00,-4.95"/>
        <lane id="E0_7" index="7" allow="passenger" speed="33.33" length="1000.00" shape="0.00,-1.65 1000.00,-1.65"/>
    </edge>

    <junction id="J0" type="unregulated" x="0.00" y="0.00" incLanes="-E0_0 -E0_1 -E0_2 -E0_3 -E0_4 -E0_5 -E0_6 -E0_7" intLanes="" shape="0.00,-0.05 0.00,26.35 0.00,0.05"/>
    <junction id="J1" type="unregulated" x="1000.00" y="0.00" incLanes="E0_0 E0_1 E0_2 E0_3 E0_4 E0_5 E0_6 E0_7" intLanes="" shape="1000.00,0.05 1000.00,-26.35 1000.00,-0.05"/>

</net>
