<?xml version="1.0" encoding="UTF-8"?>

<!-- generated on Sat 12 Aug 2017 06:34:54 PM CEST by Netedit Version 0.29.0
<?xml version="1.0" encoding="UTF-8"?>

<configuration xmlns:xsi="http://www.w3.org/2001/XMLSchema-instance" xsi:noNamespaceSchemaLocation="http://sumo.dlr.de/xsd/netedit.exeConfiguration.xsd">

    <input>
        <sumo-net-file value="/home/kaz/Downloads/grid_road/my_grid.net.xml"/>
    </input>

    <output>
        <output-file value="/home/kaz/Downloads/grid_road/my_grid.net.xml"/>
    </output>

    <processing>
        <no-turnarounds value="true"/>
        <offset.disable-normalization value="true"/>
        <lefthand value="false"/>
        <junctions.corner-detail value="0"/>
    </processing>

    <visualisation>
        <registry-viewport value="true"/>
    </visualisation>

</configuration>
-->

<net version="0.27" xmlns:xsi="http://www.w3.org/2001/XMLSchema-instance" xsi:noNamespaceSchemaLocation="http://sumo.dlr.de/xsd/net_file.xsd">

    <location netOffset="-487778.01,-4636715.22" convBoundary="0.00,0.00,445.00,445.00" origBoundary="2.852656,41.882297,2.898048,41.899504" projParameter="+proj=utm +zone=31 +ellps=WGS84 +datum=WGS84 +units=m +no_defs"/>

    <edge id=":0/0_0" function="internal">
        <lane id=":0/0_0_0" index="0" speed="13.90" length="5.00" shape="41.75,61.35 41.56,59.99 40.98,59.02 40.01,58.44 38.65,58.25"/>
    </edge>
    <edge id=":0/0_1" function="internal">
        <lane id=":0/0_1_0" index="0" speed="13.90" length="22.70" shape="41.75,61.35 41.75,38.65"/>
        <lane id=":0/0_1_1" index="1" speed="13.90" length="22.70" shape="45.05,61.35 45.05,38.65"/>
        <lane id=":0/0_1_2" index="2" speed="13.90" length="22.70" shape="48.35,61.35 48.35,38.65"/>
    </edge>
    <edge id=":0/0_4" function="internal">
        <lane id=":0/0_4_0" index="0" speed="13.90" length="7.47" shape="48.35,61.35 49.16,55.66 50.05,54.18"/>
    </edge>
    <edge id=":0/0_5" function="internal">
        <lane id=":0/0_5_0" index="0" speed="13.90" length="2.41" shape="48.35,61.35 49.18,60.11 50.00,59.70"/>
    </edge>
    <edge id=":0/0_24" function="internal">
        <lane id=":0/0_24_0" index="0" speed="13.90" length="13.50" shape="50.05,54.18 51.60,51.60 55.66,49.16 61.35,48.35"/>
    </edge>
    <edge id=":0/0_25" function="internal">
        <lane id=":0/0_25_0" index="0" speed="13.90" length="2.41" shape="50.00,59.70 50.83,60.11 51.65,61.35"/>
    </edge>
    <edge id=":0/0_6" function="internal">
        <lane id=":0/0_6_0" index="0" speed="13.90" length="5.00" shape="61.35,58.25 59.99,58.44 59.03,59.03 58.44,59.99 58.25,61.35"/>
    </edge>
    <edge id=":0/0_7" function="internal">
        <lane id=":0/0_7_0" index="0" speed="13.90" length="22.70" shape="61.35,58.25 38.65,58.25"/>
        <lane id=":0/0_7_1" index="1" speed="13.90" length="22.70" shape="61.35,54.95 38.65,54.95"/>
        <lane id=":0/0_7_2" index="2" speed="13.90" length="22.70" shape="61.35,51.65 38.65,51.65"/>
    </edge>
    <edge id=":0/0_10" function="internal">
        <lane id=":0/0_10_0" index="0" speed="13.90" length="7.47" shape="61.35,51.65 55.66,50.84 54.18,49.95"/>
    </edge>
    <edge id=":0/0_11" function="internal">
        <lane id=":0/0_11_0" index="0" speed="13.90" length="2.41" shape="61.35,51.65 60.11,50.82 59.70,50.00"/>
    </edge>
    <edge id=":0/0_26" function="internal">
        <lane id=":0/0_26_0" index="0" speed="13.90" length="13.50" shape="54.18,49.95 51.60,48.40 49.16,44.34 48.35,38.65"/>
    </edge>
    <edge id=":0/0_27" function="internal">
        <lane id=":0/0_27_0" index="0" speed="13.90" length="2.41" shape="59.70,50.00 60.11,49.17 61.35,48.35"/>
    </edge>
    <edge id=":0/0_12" function="internal">
        <lane id=":0/0_12_0" index="0" speed="13.90" length="5.00" shape="58.25,38.65 58.44,40.01 59.03,40.98 59.99,41.56 61.35,41.75"/>
    </edge>
    <edge id=":0/0_13" function="internal">
        <lane id=":0/0_13_0" index="0" speed="13.90" length="22.70" shape="58.25,38.65 58.25,61.35"/>
        <lane id=":0/0_13_1" index="1" speed="13.90" length="22.70" shape="54.95,38.65 54.95,61.35"/>
        <lane id=":0/0_13_2" index="2" speed="13.90" length="22.70" shape="51.65,38.65 51.65,61.35"/>
    </edge>
    <edge id=":0/0_16" function="internal">
        <lane id=":0/0_16_0" index="0" speed="13.90" length="7.47" shape="51.65,38.65 50.84,44.34 49.95,45.82"/>
    </edge>
    <edge id=":0/0_17" function="internal">
        <lane id=":0/0_17_0" index="0" speed="13.90" length="2.41" shape="51.65,38.65 50.82,39.89 50.00,40.30"/>
    </edge>
    <edge id=":0/0_28" function="internal">
        <lane id=":0/0_28_0" index="0" speed="13.90" length="13.50" shape="49.95,45.82 48.40,48.40 44.34,50.84 38.65,51.65"/>
    </edge>
    <edge id=":0/0_29" function="internal">
        <lane id=":0/0_29_0" index="0" speed="13.90" length="2.41" shape="50.00,40.30 49.17,39.89 48.35,38.65"/>
    </edge>
    <edge id=":0/0_18" function="internal">
        <lane id=":0/0_18_0" index="0" speed="13.90" length="5.00" shape="38.65,41.75 40.01,41.56 40.98,40.98 41.56,40.01 41.75,38.65"/>
    </edge>
    <edge id=":0/0_19" function="internal">
        <lane id=":0/0_19_0" index="0" speed="13.90" length="22.70" shape="38.65,41.75 61.35,41.75"/>
        <lane id=":0/0_19_1" index="1" speed="13.90" length="22.70" shape="38.65,45.05 61.35,45.05"/>
        <lane id=":0/0_19_2" index="2" speed="13.90" length="22.70" shape="38.65,48.35 61.35,48.35"/>
    </edge>
    <edge id=":0/0_22" function="internal">
        <lane id=":0/0_22_0" index="0" speed="13.90" length="7.47" shape="38.65,48.35 44.34,49.16 45.82,50.05"/>
    </edge>
    <edge id=":0/0_23" function="internal">
        <lane id=":0/0_23_0" index="0" speed="13.90" length="2.41" shape="38.65,48.35 39.89,49.18 40.30,50.00"/>
    </edge>
    <edge id=":0/0_30" function="internal">
        <lane id=":0/0_30_0" index="0" speed="13.90" length="13.50" shape="45.82,50.05 48.40,51.60 50.84,55.66 51.65,61.35"/>
    </edge>
    <edge id=":0/0_31" function="internal">
        <lane id=":0/0_31_0" index="0" speed="13.90" length="2.41" shape="40.30,50.00 39.89,50.83 38.65,51.65"/>
    </edge>
    <edge id=":0/1_0" function="internal">
        <lane id=":0/1_0_0" index="0" speed="13.90" length="5.00" shape="41.75,176.35 41.56,174.99 40.98,174.03 40.01,173.44 38.65,173.25"/>
    </edge>
    <edge id=":0/1_1" function="internal">
        <lane id=":0/1_1_0" index="0" speed="13.90" length="22.70" shape="41.75,176.35 41.75,153.65"/>
        <lane id=":0/1_1_1" index="1" speed="13.90" length="22.70" shape="45.05,176.35 45.05,153.65"/>
        <lane id=":0/1_1_2" index="2" speed="13.90" length="22.70" shape="48.35,176.35 48.35,153.65"/>
    </edge>
    <edge id=":0/1_4" function="internal">
        <lane id=":0/1_4_0" index="0" speed="13.90" length="7.47" shape="48.35,176.35 49.16,170.66 50.05,169.18"/>
    </edge>
    <edge id=":0/1_5" function="internal">
        <lane id=":0/1_5_0" index="0" speed="13.90" length="2.41" shape="48.35,176.35 49.18,175.11 50.00,174.70"/>
    </edge>
    <edge id=":0/1_24" function="internal">
        <lane id=":0/1_24_0" index="0" speed="13.90" length="13.50" shape="50.05,169.18 51.60,166.60 55.66,164.16 61.35,163.35"/>
    </edge>
    <edge id=":0/1_25" function="internal">
        <lane id=":0/1_25_0" index="0" speed="13.90" length="2.41" shape="50.00,174.70 50.83,175.11 51.65,176.35"/>
    </edge>
    <edge id=":0/1_6" function="internal">
        <lane id=":0/1_6_0" index="0" speed="13.90" length="5.00" shape="61.35,173.25 59.99,173.44 59.03,174.03 58.44,174.99 58.25,176.35"/>
    </edge>
    <edge id=":0/1_7" function="internal">
        <lane id=":0/1_7_0" index="0" speed="13.90" length="22.70" shape="61.35,173.25 38.65,173.25"/>
        <lane id=":0/1_7_1" index="1" speed="13.90" length="22.70" shape="61.35,169.95 38.65,169.95"/>
        <lane id=":0/1_7_2" index="2" speed="13.90" length="22.70" shape="61.35,166.65 38.65,166.65"/>
    </edge>
    <edge id=":0/1_10" function="internal">
        <lane id=":0/1_10_0" index="0" speed="13.90" length="7.47" shape="61.35,166.65 55.66,165.84 54.18,164.95"/>
    </edge>
    <edge id=":0/1_11" function="internal">
        <lane id=":0/1_11_0" index="0" speed="13.90" length="2.41" shape="61.35,166.65 60.11,165.83 59.70,165.00"/>
    </edge>
    <edge id=":0/1_26" function="internal">
        <lane id=":0/1_26_0" index="0" speed="13.90" length="13.50" shape="54.18,164.95 51.60,163.40 49.16,159.34 48.35,153.65"/>
    </edge>
    <edge id=":0/1_27" function="internal">
        <lane id=":0/1_27_0" index="0" speed="13.90" length="2.41" shape="59.70,165.00 60.11,164.18 61.35,163.35"/>
    </edge>
    <edge id=":0/1_12" function="internal">
        <lane id=":0/1_12_0" index="0" speed="13.90" length="5.00" shape="58.25,153.65 58.44,155.01 59.03,155.97 59.99,156.56 61.35,156.75"/>
    </edge>
    <edge id=":0/1_13" function="internal">
        <lane id=":0/1_13_0" index="0" speed="13.90" length="22.70" shape="58.25,153.65 58.25,176.35"/>
        <lane id=":0/1_13_1" index="1" speed="13.90" length="22.70" shape="54.95,153.65 54.95,176.35"/>
        <lane id=":0/1_13_2" index="2" speed="13.90" length="22.70" shape="51.65,153.65 51.65,176.35"/>
    </edge>
    <edge id=":0/1_16" function="internal">
        <lane id=":0/1_16_0" index="0" speed="13.90" length="7.47" shape="51.65,153.65 50.84,159.34 49.95,160.82"/>
    </edge>
    <edge id=":0/1_17" function="internal">
        <lane id=":0/1_17_0" index="0" speed="13.90" length="2.41" shape="51.65,153.65 50.82,154.89 50.00,155.30"/>
    </edge>
    <edge id=":0/1_28" function="internal">
        <lane id=":0/1_28_0" index="0" speed="13.90" length="13.50" shape="49.95,160.82 48.40,163.40 44.34,165.84 38.65,166.65"/>
    </edge>
    <edge id=":0/1_29" function="internal">
        <lane id=":0/1_29_0" index="0" speed="13.90" length="2.41" shape="50.00,155.30 49.17,154.89 48.35,153.65"/>
    </edge>
    <edge id=":0/1_18" function="internal">
        <lane id=":0/1_18_0" index="0" speed="13.90" length="5.00" shape="38.65,156.75 40.01,156.56 40.98,155.97 41.56,155.01 41.75,153.65"/>
    </edge>
    <edge id=":0/1_19" function="internal">
        <lane id=":0/1_19_0" index="0" speed="13.90" length="22.70" shape="38.65,156.75 61.35,156.75"/>
        <lane id=":0/1_19_1" index="1" speed="13.90" length="22.70" shape="38.65,160.05 61.35,160.05"/>
        <lane id=":0/1_19_2" index="2" speed="13.90" length="22.70" shape="38.65,163.35 61.35,163.35"/>
    </edge>
    <edge id=":0/1_22" function="internal">
        <lane id=":0/1_22_0" index="0" speed="13.90" length="7.47" shape="38.65,163.35 44.34,164.16 45.82,165.05"/>
    </edge>
    <edge id=":0/1_23" function="internal">
        <lane id=":0/1_23_0" index="0" speed="13.90" length="2.41" shape="38.65,163.35 39.89,164.17 40.30,165.00"/>
    </edge>
    <edge id=":0/1_30" function="internal">
        <lane id=":0/1_30_0" index="0" speed="13.90" length="13.50" shape="45.82,165.05 48.40,166.60 50.84,170.66 51.65,176.35"/>
    </edge>
    <edge id=":0/1_31" function="internal">
        <lane id=":0/1_31_0" index="0" speed="13.90" length="2.41" shape="40.30,165.00 39.89,165.82 38.65,166.65"/>
    </edge>
    <edge id=":0/2_0" function="internal">
        <lane id=":0/2_0_0" index="0" speed="13.90" length="5.00" shape="41.75,291.35 41.56,289.99 40.98,289.02 40.01,288.44 38.65,288.25"/>
    </edge>
    <edge id=":0/2_1" function="internal">
        <lane id=":0/2_1_0" index="0" speed="13.90" length="22.70" shape="41.75,291.35 41.75,268.65"/>
        <lane id=":0/2_1_1" index="1" speed="13.90" length="22.70" shape="45.05,291.35 45.05,268.65"/>
        <lane id=":0/2_1_2" index="2" speed="13.90" length="22.70" shape="48.35,291.35 48.35,268.65"/>
    </edge>
    <edge id=":0/2_4" function="internal">
        <lane id=":0/2_4_0" index="0" speed="13.90" length="7.47" shape="48.35,291.35 49.16,285.66 50.05,284.18"/>
    </edge>
    <edge id=":0/2_5" function="internal">
        <lane id=":0/2_5_0" index="0" speed="13.90" length="2.41" shape="48.35,291.35 49.18,290.11 50.00,289.70"/>
    </edge>
    <edge id=":0/2_24" function="internal">
        <lane id=":0/2_24_0" index="0" speed="13.90" length="13.50" shape="50.05,284.18 51.60,281.60 55.66,279.16 61.35,278.35"/>
    </edge>
    <edge id=":0/2_25" function="internal">
        <lane id=":0/2_25_0" index="0" speed="13.90" length="2.41" shape="50.00,289.70 50.83,290.11 51.65,291.35"/>
    </edge>
    <edge id=":0/2_6" function="internal">
        <lane id=":0/2_6_0" index="0" speed="13.90" length="5.00" shape="61.35,288.25 59.99,288.44 59.03,289.02 58.44,289.99 58.25,291.35"/>
    </edge>
    <edge id=":0/2_7" function="internal">
        <lane id=":0/2_7_0" index="0" speed="13.90" length="22.70" shape="61.35,288.25 38.65,288.25"/>
        <lane id=":0/2_7_1" index="1" speed="13.90" length="22.70" shape="61.35,284.95 38.65,284.95"/>
        <lane id=":0/2_7_2" index="2" speed="13.90" length="22.70" shape="61.35,281.65 38.65,281.65"/>
    </edge>
    <edge id=":0/2_10" function="internal">
        <lane id=":0/2_10_0" index="0" speed="13.90" length="7.47" shape="61.35,281.65 55.66,280.84 54.18,279.95"/>
    </edge>
    <edge id=":0/2_11" function="internal">
        <lane id=":0/2_11_0" index="0" speed="13.90" length="2.41" shape="61.35,281.65 60.11,280.83 59.70,280.00"/>
    </edge>
    <edge id=":0/2_26" function="internal">
        <lane id=":0/2_26_0" index="0" speed="13.90" length="13.50" shape="54.18,279.95 51.60,278.40 49.16,274.34 48.35,268.65"/>
    </edge>
    <edge id=":0/2_27" function="internal">
        <lane id=":0/2_27_0" index="0" speed="13.90" length="2.41" shape="59.70,280.00 60.11,279.18 61.35,278.35"/>
    </edge>
    <edge id=":0/2_12" function="internal">
        <lane id=":0/2_12_0" index="0" speed="13.90" length="5.00" shape="58.25,268.65 58.44,270.01 59.03,270.98 59.99,271.56 61.35,271.75"/>
    </edge>
    <edge id=":0/2_13" function="internal">
        <lane id=":0/2_13_0" index="0" speed="13.90" length="22.70" shape="58.25,268.65 58.25,291.35"/>
        <lane id=":0/2_13_1" index="1" speed="13.90" length="22.70" shape="54.95,268.65 54.95,291.35"/>
        <lane id=":0/2_13_2" index="2" speed="13.90" length="22.70" shape="51.65,268.65 51.65,291.35"/>
    </edge>
    <edge id=":0/2_16" function="internal">
        <lane id=":0/2_16_0" index="0" speed="13.90" length="7.47" shape="51.65,268.65 50.84,274.34 49.95,275.82"/>
    </edge>
    <edge id=":0/2_17" function="internal">
        <lane id=":0/2_17_0" index="0" speed="13.90" length="2.41" shape="51.65,268.65 50.82,269.89 50.00,270.30"/>
    </edge>
    <edge id=":0/2_28" function="internal">
        <lane id=":0/2_28_0" index="0" speed="13.90" length="13.50" shape="49.95,275.82 48.40,278.40 44.34,280.84 38.65,281.65"/>
    </edge>
    <edge id=":0/2_29" function="internal">
        <lane id=":0/2_29_0" index="0" speed="13.90" length="2.41" shape="50.00,270.30 49.17,269.89 48.35,268.65"/>
    </edge>
    <edge id=":0/2_18" function="internal">
        <lane id=":0/2_18_0" index="0" speed="13.90" length="5.00" shape="38.65,271.75 40.01,271.56 40.98,270.98 41.56,270.01 41.75,268.65"/>
    </edge>
    <edge id=":0/2_19" function="internal">
        <lane id=":0/2_19_0" index="0" speed="13.90" length="22.70" shape="38.65,271.75 61.35,271.75"/>
        <lane id=":0/2_19_1" index="1" speed="13.90" length="22.70" shape="38.65,275.05 61.35,275.05"/>
        <lane id=":0/2_19_2" index="2" speed="13.90" length="22.70" shape="38.65,278.35 61.35,278.35"/>
    </edge>
    <edge id=":0/2_22" function="internal">
        <lane id=":0/2_22_0" index="0" speed="13.90" length="7.47" shape="38.65,278.35 44.34,279.16 45.82,280.05"/>
    </edge>
    <edge id=":0/2_23" function="internal">
        <lane id=":0/2_23_0" index="0" speed="13.90" length="2.41" shape="38.65,278.35 39.89,279.17 40.30,280.00"/>
    </edge>
    <edge id=":0/2_30" function="internal">
        <lane id=":0/2_30_0" index="0" speed="13.90" length="13.50" shape="45.82,280.05 48.40,281.60 50.84,285.66 51.65,291.35"/>
    </edge>
    <edge id=":0/2_31" function="internal">
        <lane id=":0/2_31_0" index="0" speed="13.90" length="2.41" shape="40.30,280.00 39.89,280.82 38.65,281.65"/>
    </edge>
    <edge id=":0/3_0" function="internal">
        <lane id=":0/3_0_0" index="0" speed="13.90" length="5.00" shape="41.75,406.35 41.56,404.99 40.98,404.02 40.01,403.44 38.65,403.25"/>
    </edge>
    <edge id=":0/3_1" function="internal">
        <lane id=":0/3_1_0" index="0" speed="13.90" length="22.70" shape="41.75,406.35 41.75,383.65"/>
        <lane id=":0/3_1_1" index="1" speed="13.90" length="22.70" shape="45.05,406.35 45.05,383.65"/>
        <lane id=":0/3_1_2" index="2" speed="13.90" length="22.70" shape="48.35,406.35 48.35,383.65"/>
    </edge>
    <edge id=":0/3_4" function="internal">
        <lane id=":0/3_4_0" index="0" speed="13.90" length="7.47" shape="48.35,406.35 49.16,400.66 50.05,399.18"/>
    </edge>
    <edge id=":0/3_5" function="internal">
        <lane id=":0/3_5_0" index="0" speed="13.90" length="2.41" shape="48.35,406.35 49.18,405.11 50.00,404.70"/>
    </edge>
    <edge id=":0/3_24" function="internal">
        <lane id=":0/3_24_0" index="0" speed="13.90" length="13.50" shape="50.05,399.18 51.60,396.60 55.66,394.16 61.35,393.35"/>
    </edge>
    <edge id=":0/3_25" function="internal">
        <lane id=":0/3_25_0" index="0" speed="13.90" length="2.41" shape="50.00,404.70 50.83,405.11 51.65,406.35"/>
    </edge>
    <edge id=":0/3_6" function="internal">
        <lane id=":0/3_6_0" index="0" speed="13.90" length="5.00" shape="61.35,403.25 59.99,403.44 59.02,404.02 58.44,404.99 58.25,406.35"/>
    </edge>
    <edge id=":0/3_7" function="internal">
        <lane id=":0/3_7_0" index="0" speed="13.90" length="22.70" shape="61.35,403.25 38.65,403.25"/>
        <lane id=":0/3_7_1" index="1" speed="13.90" length="22.70" shape="61.35,399.95 38.65,399.95"/>
        <lane id=":0/3_7_2" index="2" speed="13.90" length="22.70" shape="61.35,396.65 38.65,396.65"/>
    </edge>
    <edge id=":0/3_10" function="internal">
        <lane id=":0/3_10_0" index="0" speed="13.90" length="7.47" shape="61.35,396.65 55.66,395.84 54.18,394.95"/>
    </edge>
    <edge id=":0/3_11" function="internal">
        <lane id=":0/3_11_0" index="0" speed="13.90" length="2.41" shape="61.35,396.65 60.11,395.83 59.70,395.00"/>
    </edge>
    <edge id=":0/3_26" function="internal">
        <lane id=":0/3_26_0" index="0" speed="13.90" length="13.50" shape="54.18,394.95 51.60,393.40 49.16,389.34 48.35,383.65"/>
    </edge>
    <edge id=":0/3_27" function="internal">
        <lane id=":0/3_27_0" index="0" speed="13.90" length="2.41" shape="59.70,395.00 60.11,394.18 61.35,393.35"/>
    </edge>
    <edge id=":0/3_12" function="internal">
        <lane id=":0/3_12_0" index="0" speed="13.90" length="5.00" shape="58.25,383.65 58.44,385.01 59.03,385.98 59.99,386.56 61.35,386.75"/>
    </edge>
    <edge id=":0/3_13" function="internal">
        <lane id=":0/3_13_0" index="0" speed="13.90" length="22.70" shape="58.25,383.65 58.25,406.35"/>
        <lane id=":0/3_13_1" index="1" speed="13.90" length="22.70" shape="54.95,383.65 54.95,406.35"/>
        <lane id=":0/3_13_2" index="2" speed="13.90" length="22.70" shape="51.65,383.65 51.65,406.35"/>
    </edge>
    <edge id=":0/3_16" function="internal">
        <lane id=":0/3_16_0" index="0" speed="13.90" length="7.47" shape="51.65,383.65 50.84,389.34 49.95,390.82"/>
    </edge>
    <edge id=":0/3_17" function="internal">
        <lane id=":0/3_17_0" index="0" speed="13.90" length="2.41" shape="51.65,383.65 50.82,384.89 50.00,385.30"/>
    </edge>
    <edge id=":0/3_28" function="internal">
        <lane id=":0/3_28_0" index="0" speed="13.90" length="13.50" shape="49.95,390.82 48.40,393.40 44.34,395.84 38.65,396.65"/>
    </edge>
    <edge id=":0/3_29" function="internal">
        <lane id=":0/3_29_0" index="0" speed="13.90" length="2.41" shape="50.00,385.30 49.17,384.89 48.35,383.65"/>
    </edge>
    <edge id=":0/3_18" function="internal">
        <lane id=":0/3_18_0" index="0" speed="13.90" length="5.00" shape="38.65,386.75 40.01,386.56 40.98,385.98 41.56,385.01 41.75,383.65"/>
    </edge>
    <edge id=":0/3_19" function="internal">
        <lane id=":0/3_19_0" index="0" speed="13.90" length="22.70" shape="38.65,386.75 61.35,386.75"/>
        <lane id=":0/3_19_1" index="1" speed="13.90" length="22.70" shape="38.65,390.05 61.35,390.05"/>
        <lane id=":0/3_19_2" index="2" speed="13.90" length="22.70" shape="38.65,393.35 61.35,393.35"/>
    </edge>
    <edge id=":0/3_22" function="internal">
        <lane id=":0/3_22_0" index="0" speed="13.90" length="7.47" shape="38.65,393.35 44.34,394.16 45.82,395.05"/>
    </edge>
    <edge id=":0/3_23" function="internal">
        <lane id=":0/3_23_0" index="0" speed="13.90" length="2.41" shape="38.65,393.35 39.89,394.17 40.30,395.00"/>
    </edge>
    <edge id=":0/3_30" function="internal">
        <lane id=":0/3_30_0" index="0" speed="13.90" length="13.50" shape="45.82,395.05 48.40,396.60 50.84,400.66 51.65,406.35"/>
    </edge>
    <edge id=":0/3_31" function="internal">
        <lane id=":0/3_31_0" index="0" speed="13.90" length="2.41" shape="40.30,395.00 39.89,395.82 38.65,396.65"/>
    </edge>
    <edge id=":1/0_0" function="internal">
        <lane id=":1/0_0_0" index="0" speed="13.90" length="5.00" shape="156.75,61.35 156.56,59.99 155.97,59.03 155.01,58.44 153.65,58.25"/>
    </edge>
    <edge id=":1/0_1" function="internal">
        <lane id=":1/0_1_0" index="0" speed="13.90" length="22.70" shape="156.75,61.35 156.75,38.65"/>
        <lane id=":1/0_1_1" index="1" speed="13.90" length="22.70" shape="160.05,61.35 160.05,38.65"/>
        <lane id=":1/0_1_2" index="2" speed="13.90" length="22.70" shape="163.35,61.35 163.35,38.65"/>
    </edge>
    <edge id=":1/0_4" function="internal">
        <lane id=":1/0_4_0" index="0" speed="13.90" length="7.47" shape="163.35,61.35 164.16,55.66 165.05,54.18"/>
    </edge>
    <edge id=":1/0_5" function="internal">
        <lane id=":1/0_5_0" index="0" speed="13.90" length="2.41" shape="163.35,61.35 164.17,60.11 165.00,59.70"/>
    </edge>
    <edge id=":1/0_24" function="internal">
        <lane id=":1/0_24_0" index="0" speed="13.90" length="13.50" shape="165.05,54.18 166.60,51.60 170.66,49.16 176.35,48.35"/>
    </edge>
    <edge id=":1/0_25" function="internal">
        <lane id=":1/0_25_0" index="0" speed="13.90" length="2.41" shape="165.00,59.70 165.82,60.11 166.65,61.35"/>
    </edge>
    <edge id=":1/0_6" function="internal">
        <lane id=":1/0_6_0" index="0" speed="13.90" length="5.00" shape="176.35,58.25 174.99,58.44 174.03,59.03 173.44,59.99 173.25,61.35"/>
    </edge>
    <edge id=":1/0_7" function="internal">
        <lane id=":1/0_7_0" index="0" speed="13.90" length="22.70" shape="176.35,58.25 153.65,58.25"/>
        <lane id=":1/0_7_1" index="1" speed="13.90" length="22.70" shape="176.35,54.95 153.65,54.95"/>
        <lane id=":1/0_7_2" index="2" speed="13.90" length="22.70" shape="176.35,51.65 153.65,51.65"/>
    </edge>
    <edge id=":1/0_10" function="internal">
        <lane id=":1/0_10_0" index="0" speed="13.90" length="7.47" shape="176.35,51.65 170.66,50.84 169.18,49.95"/>
    </edge>
    <edge id=":1/0_11" function="internal">
        <lane id=":1/0_11_0" index="0" speed="13.90" length="2.41" shape="176.35,51.65 175.11,50.82 174.70,50.00"/>
    </edge>
    <edge id=":1/0_26" function="internal">
        <lane id=":1/0_26_0" index="0" speed="13.90" length="13.50" shape="169.18,49.95 166.60,48.40 164.16,44.34 163.35,38.65"/>
    </edge>
    <edge id=":1/0_27" function="internal">
        <lane id=":1/0_27_0" index="0" speed="13.90" length="2.41" shape="174.70,50.00 175.11,49.17 176.35,48.35"/>
    </edge>
    <edge id=":1/0_12" function="internal">
        <lane id=":1/0_12_0" index="0" speed="13.90" length="5.00" shape="173.25,38.65 173.44,40.01 174.03,40.98 174.99,41.56 176.35,41.75"/>
    </edge>
    <edge id=":1/0_13" function="internal">
        <lane id=":1/0_13_0" index="0" speed="13.90" length="22.70" shape="173.25,38.65 173.25,61.35"/>
        <lane id=":1/0_13_1" index="1" speed="13.90" length="22.70" shape="169.95,38.65 169.95,61.35"/>
        <lane id=":1/0_13_2" index="2" speed="13.90" length="22.70" shape="166.65,38.65 166.65,61.35"/>
    </edge>
    <edge id=":1/0_16" function="internal">
        <lane id=":1/0_16_0" index="0" speed="13.90" length="7.47" shape="166.65,38.65 165.84,44.34 164.95,45.82"/>
    </edge>
    <edge id=":1/0_17" function="internal">
        <lane id=":1/0_17_0" index="0" speed="13.90" length="2.41" shape="166.65,38.65 165.83,39.89 165.00,40.30"/>
    </edge>
    <edge id=":1/0_28" function="internal">
        <lane id=":1/0_28_0" index="0" speed="13.90" length="13.50" shape="164.95,45.82 163.40,48.40 159.34,50.84 153.65,51.65"/>
    </edge>
    <edge id=":1/0_29" function="internal">
        <lane id=":1/0_29_0" index="0" speed="13.90" length="2.41" shape="165.00,40.30 164.18,39.89 163.35,38.65"/>
    </edge>
    <edge id=":1/0_18" function="internal">
        <lane id=":1/0_18_0" index="0" speed="13.90" length="5.00" shape="153.65,41.75 155.01,41.56 155.97,40.98 156.56,40.01 156.75,38.65"/>
    </edge>
    <edge id=":1/0_19" function="internal">
        <lane id=":1/0_19_0" index="0" speed="13.90" length="22.70" shape="153.65,41.75 176.35,41.75"/>
        <lane id=":1/0_19_1" index="1" speed="13.90" length="22.70" shape="153.65,45.05 176.35,45.05"/>
        <lane id=":1/0_19_2" index="2" speed="13.90" length="22.70" shape="153.65,48.35 176.35,48.35"/>
    </edge>
    <edge id=":1/0_22" function="internal">
        <lane id=":1/0_22_0" index="0" speed="13.90" length="7.47" shape="153.65,48.35 159.34,49.16 160.82,50.05"/>
    </edge>
    <edge id=":1/0_23" function="internal">
        <lane id=":1/0_23_0" index="0" speed="13.90" length="2.41" shape="153.65,48.35 154.89,49.18 155.30,50.00"/>
    </edge>
    <edge id=":1/0_30" function="internal">
        <lane id=":1/0_30_0" index="0" speed="13.90" length="13.50" shape="160.82,50.05 163.40,51.60 165.84,55.66 166.65,61.35"/>
    </edge>
    <edge id=":1/0_31" function="internal">
        <lane id=":1/0_31_0" index="0" speed="13.90" length="2.41" shape="155.30,50.00 154.89,50.83 153.65,51.65"/>
    </edge>
    <edge id=":1/1_0" function="internal">
        <lane id=":1/1_0_0" index="0" speed="13.90" length="5.00" shape="156.75,176.35 156.56,174.99 155.97,174.03 155.01,173.44 153.65,173.25"/>
    </edge>
    <edge id=":1/1_1" function="internal">
        <lane id=":1/1_1_0" index="0" speed="13.90" length="22.70" shape="156.75,176.35 156.75,153.65"/>
        <lane id=":1/1_1_1" index="1" speed="13.90" length="22.70" shape="160.05,176.35 160.05,153.65"/>
        <lane id=":1/1_1_2" index="2" speed="13.90" length="22.70" shape="163.35,176.35 163.35,153.65"/>
    </edge>
    <edge id=":1/1_4" function="internal">
        <lane id=":1/1_4_0" index="0" speed="13.90" length="7.47" shape="163.35,176.35 164.16,170.66 165.05,169.18"/>
    </edge>
    <edge id=":1/1_5" function="internal">
        <lane id=":1/1_5_0" index="0" speed="13.90" length="2.41" shape="163.35,176.35 164.17,175.11 165.00,174.70"/>
    </edge>
    <edge id=":1/1_24" function="internal">
        <lane id=":1/1_24_0" index="0" speed="13.90" length="13.50" shape="165.05,169.18 166.60,166.60 170.66,164.16 176.35,163.35"/>
    </edge>
    <edge id=":1/1_25" function="internal">
        <lane id=":1/1_25_0" index="0" speed="13.90" length="2.41" shape="165.00,174.70 165.82,175.11 166.65,176.35"/>
    </edge>
    <edge id=":1/1_6" function="internal">
        <lane id=":1/1_6_0" index="0" speed="13.90" length="5.00" shape="176.35,173.25 174.99,173.44 174.03,174.03 173.44,174.99 173.25,176.35"/>
    </edge>
    <edge id=":1/1_7" function="internal">
        <lane id=":1/1_7_0" index="0" speed="13.90" length="22.70" shape="176.35,173.25 153.65,173.25"/>
        <lane id=":1/1_7_1" index="1" speed="13.90" length="22.70" shape="176.35,169.95 153.65,169.95"/>
        <lane id=":1/1_7_2" index="2" speed="13.90" length="22.70" shape="176.35,166.65 153.65,166.65"/>
    </edge>
    <edge id=":1/1_10" function="internal">
        <lane id=":1/1_10_0" index="0" speed="13.90" length="7.47" shape="176.35,166.65 170.66,165.84 169.18,164.95"/>
    </edge>
    <edge id=":1/1_11" function="internal">
        <lane id=":1/1_11_0" index="0" speed="13.90" length="2.41" shape="176.35,166.65 175.11,165.83 174.70,165.00"/>
    </edge>
    <edge id=":1/1_26" function="internal">
        <lane id=":1/1_26_0" index="0" speed="13.90" length="13.50" shape="169.18,164.95 166.60,163.40 164.16,159.34 163.35,153.65"/>
    </edge>
    <edge id=":1/1_27" function="internal">
        <lane id=":1/1_27_0" index="0" speed="13.90" length="2.41" shape="174.70,165.00 175.11,164.18 176.35,163.35"/>
    </edge>
    <edge id=":1/1_12" function="internal">
        <lane id=":1/1_12_0" index="0" speed="13.90" length="5.00" shape="173.25,153.65 173.44,155.01 174.03,155.97 174.99,156.56 176.35,156.75"/>
    </edge>
    <edge id=":1/1_13" function="internal">
        <lane id=":1/1_13_0" index="0" speed="13.90" length="22.70" shape="173.25,153.65 173.25,176.35"/>
        <lane id=":1/1_13_1" index="1" speed="13.90" length="22.70" shape="169.95,153.65 169.95,176.35"/>
        <lane id=":1/1_13_2" index="2" speed="13.90" length="22.70" shape="166.65,153.65 166.65,176.35"/>
    </edge>
    <edge id=":1/1_16" function="internal">
        <lane id=":1/1_16_0" index="0" speed="13.90" length="7.47" shape="166.65,153.65 165.84,159.34 164.95,160.82"/>
    </edge>
    <edge id=":1/1_17" function="internal">
        <lane id=":1/1_17_0" index="0" speed="13.90" length="2.41" shape="166.65,153.65 165.83,154.89 165.00,155.30"/>
    </edge>
    <edge id=":1/1_28" function="internal">