<?xml version="1.0" encoding="UTF-8"?>

<!-- generated on lun 19 oct 2020 17:27:35 by Eclipse SUMO netedit Version 1.7.0
<configuration xmlns:xsi="http://www.w3.org/2001/XMLSchema-instance" xsi:noNamespaceSchemaLocation="http://sumo.dlr.de/xsd/netconvertConfiguration.xsd">

    <output>
        <output-file value="/home/aniol/Documents/I2cat/SUMO_Tutorials/helloWorld.net.xml"/>
    </output>

    <processing>
        <offset.disable-normalization value="true"/>
    </processing>

    <junctions>
        <no-turnarounds value="true"/>
    </junctions>

    <netedit>
        <route-files value="/home/aniol/Documents/I2cat/SUMO_Tutorials/helloWorld.rou.xml"/>
    </netedit>

    <report>
        <aggregate-warnings value="5"/>
    </report>

</configuration>
-->

<routes xmlns:xsi="http://www.w3.org/2001/XMLSchema-instance" xsi:noNamespaceSchemaLocation="http://sumo.dlr.de/xsd/routes_file.xsd">
    <route edges="1to2 out" color="yellow" id="route_0"/>
    <trip id="vehicle_0" depart="0.00" color="0,229,251" from="1to2" to="out"/>
</routes>
