<?xml version="1.0" encoding="UTF-8"?>

<!-- generated on Sun 19 Nov 2017 12:16:15 AM EST by Netedit Version 0.29.0
<?xml version="1.0" encoding="UTF-8"?>

<configuration xmlns:xsi="http://www.w3.org/2001/XMLSchema-instance" xsi:noNamespaceSchemaLocation="http://sumo.dlr.de/xsd/netedit.exeConfiguration.xsd">

    <input>
        <sumo-net-file value="/home/kaz/V2X-ARCH_11p/artery/scenarios/artery/my_roads/ronda-speed/ronda.net.xml"/>
    </input>

    <output>
        <output-file value="/home/kaz/V2X-ARCH_11p/artery/scenarios/artery/my_roads/ronda-speed/ronda.net.xml"/>
    </output>

    <processing>
        <no-turnarounds value="true"/>
        <offset.disable-normalization value="true"/>
        <lefthand value="false"/>
        <junctions.corner-detail value="0"/>
    </processing>

    <visualisation>
        <registry-viewport value="true"/>
    </visualisation>

</configuration>
-->

<net version="0.27" xmlns:xsi="http://www.w3.org/2001/XMLSchema-instance" xsi:noNamespaceSchemaLocation="http://sumo.dlr.de/xsd/net_file.xsd">

    <location netOffset="-487778.01,-4636715.22" convBoundary="1089.03,0.00,10293.33,6783.74" origBoundary="2.852656,41.882297,2.898048,41.899504" projParameter="+proj=utm +zone=31 +ellps=WGS84 +datum=WGS84 +units=m +no_defs"/>

    <edge id=":1075221321_0" function="internal">
        <lane id=":1075221321_0_0" index="0" disallow="tram rail_urban rail rail_electric ship" speed="10.00" length="5.28" shape="9089.01,5246.57 9085.24,5242.95"/>
        <lane id=":1075221321_0_1" index="1" disallow="tram rail_urban rail rail_electric ship" speed="10.00" length="5.28" shape="9091.34,5244.23 9087.50,5240.54"/>
    </edge>
    <edge id=":1075221385_0" function="internal">
        <lane id=":1075221385_0_0" index="0" disallow="tram rail_urban rail rail_electric ship" speed="10.00" length="5.10" shape="9058.03,5217.33 9054.34,5213.77"/>
        <lane id=":1075221385_0_1" index="1" disallow="tram rail_urban rail rail_electric ship" speed="10.00" length="5.10" shape="9060.30,5214.93 9056.64,5211.41"/>
    </edge>
    <edge id=":1075221424_0" function="internal">
        <lane id=":1075221424_0_0" index="0" disallow="tram rail_urban rail rail_electric ship" speed="10.00" length="5.65" shape="9001.25,5162.16 8997.15,5158.41"/>
        <lane id=":1075221424_0_1" index="1" disallow="tram rail_urban rail rail_electric ship" speed="10.00" length="5.65" shape="9003.55,5159.79 8999.31,5155.91"/>
    </edge>
    <edge id=":1075221524_0" function="internal">
        <lane id=":1075221524_0_0" index="0" disallow="tram rail_urban rail rail_electric ship" speed="10.00" length="5.51" shape="9174.51,5119.98 9169.48,5117.74"/>
    </edge>
    <edge id=":1075221524_1" function="internal">
        <lane id=":1075221524_1_0" index="0" disallow="tram rail_urban rail rail_electric ship" speed="10.00" length="2.41" shape="9174.51,5119.98 9173.75,5118.70 9173.73,5117.78"/>
    </edge>
    <edge id=":1075221524_4" function="internal">
        <lane id=":1075221524_4_0" index="0" speed="10.00" length="2.41" shape="9173.73,5117.78 9174.45,5117.21 9175.93,5117.00"/>
    </edge>
    <edge id=":1075221524_2" function="internal">
        <lane id=":1075221524_2_0" index="0" disallow="tram rail_urban rail rail_electric ship" speed="10.00" length="5.70" shape="9170.72,5114.68 9175.93,5117.00"/>
    </edge>
    <edge id=":1075221524_3" function="internal">
        <lane id=":1075221524_3_0" index="0" disallow="tram rail_urban rail rail_electric ship" speed="10.00" length="2.52" shape="9170.72,5114.68 9171.56,5115.91 9171.63,5116.83 9171.54,5116.90"/>
    </edge>
    <edge id=":1075221524_5" function="internal">
        <lane id=":1075221524_5_0" index="0" speed="10.00" length="2.30" shape="9171.54,5116.90 9170.94,5117.44 9169.48,5117.74"/>
    </edge>
    <edge id=":1075221549_0" function="internal">
        <lane id=":1075221549_0_0" index="0" allow="delivery bicycle pedestrian" speed="10.00" length="5.32" shape="8973.22,5003.94 8972.24,5002.71 8971.52,5001.90 8970.73,5001.16 8969.53,5000.13"/>
    </edge>
    <edge id=":1075221549_1" function="internal">
        <lane id=":1075221549_1_0" index="0" allow="delivery bicycle pedestrian" speed="10.00" length="2.41" shape="8973.22,5003.94 8973.10,5002.46 8973.49,5001.62"/>
    </edge>
    <edge id=":1075221549_4" function="internal">
        <lane id=":1075221549_4_0" index="0" speed="10.00" length="2.41" shape="8973.49,5001.62 8974.39,5001.43 8975.81,5001.89"/>
    </edge>
    <edge id=":1075221549_2" function="internal">
        <lane id=":1075221549_2_0" index="0" allow="delivery bicycle pedestrian" speed="10.00" length="5.97" shape="8971.67,4997.61 8973.01,4998.77 8973.90,4999.60 8974.70,5000.51 8975.81,5001.89"/>
    </edge>
    <edge id=":1075221549_3" function="internal">
        <lane id=":1075221549_3_0" index="0" allow="delivery bicycle pedestrian" speed="10.00" length="2.41" shape="8971.67,4997.61 8972.08,4999.04 8971.86,4999.94"/>
    </edge>
    <edge id=":1075221549_5" function="internal">
        <lane id=":1075221549_5_0" index="0" speed="10.00" length="2.41" shape="8971.86,4999.94 8971.01,5000.30 8969.53,5000.13"/>
    </edge>
    <edge id=":1075221565_0" function="internal">
        <lane id=":1075221565_0_0" index="0" disallow="tram rail_urban rail rail_electric ship" speed="10.00" length="5.33" shape="9061.05,5064.17 9056.87,5060.88"/>
    </edge>
    <edge id=":1075221565_1" function="internal">
        <lane id=":1075221565_1_0" index="0" disallow="tram rail_urban rail rail_electric ship" speed="10.00" length="2.41" shape="9061.05,5064.17 9060.59,5062.76 9060.78,5061.86"/>
    </edge>
    <edge id=":1075221565_4" function="internal">
        <lane id=":1075221565_4_0" index="0" speed="10.00" length="2.41" shape="9060.78,5061.86 9061.61,5061.46 9063.10,5061.58"/>
    </edge>
    <edge id=":1075221565_2" function="internal">
        <lane id=":1075221565_2_0" index="0" disallow="tram rail_urban rail rail_electric ship" speed="10.00" length="5.33" shape="9058.91,5058.28 9063.10,5061.58"/>
    </edge>
    <edge id=":1075221565_3" function="internal">
        <lane id=":1075221565_3_0" index="0" disallow="tram rail_urban rail rail_electric ship" speed="10.00" length="2.41" shape="9058.91,5058.28 9059.37,5059.70 9059.19,5060.60"/>
    </edge>
    <edge id=":1075221565_5" function="internal">
        <lane id=":1075221565_5_0" index="0" speed="10.00" length="2.41" shape="9059.19,5060.60 9058.35,5060.99 9056.87,5060.88"/>
    </edge>
    <edge id=":1075221588_0" function="internal">
        <lane id=":1075221588_0_0" index="0" disallow="tram rail_urban rail rail_electric ship" speed="10.00" length="0.25" shape="8985.59,5148.46 8985.36,5148.26"/>
        <lane id=":1075221588_0_1" index="1" disallow="tram rail_urban rail rail_electric ship" speed="10.00" length="0.25" shape="8987.74,5145.96 8987.59,5145.83"/>
    </edge>
    <edge id=":1141475321_0" function="internal">
        <lane id=":1141475321_0_0" index="0" allow="bicycle" speed="10.00" length="1.61" width="1.00" shape="8846.67,4874.31 8846.19,4874.42 8845.89,4874.33 8845.79,4874.04 8845.88,4873.55"/>
    </edge>
    <edge id=":1141475341_0" function="internal">
        <lane id=":1141475341_0_0" index="0" allow="bicycle" speed="10.00" length="6.96" width="1.00" shape="8570.18,4773.23 8564.82,4768.80"/>
    </edge>
    <edge id=":1141475341_1" function="internal">
        <lane id=":1141475341_1_0" index="0" disallow="tram rail_urban rail rail_electric ship" speed="10.00" length="0.16" shape="8570.18,4773.23 8570.14,4773.07"/>
    </edge>
    <edge id=":1141475341_2" function="internal">
        <lane id=":1141475341_2_0" index="0" allow="bicycle" speed="10.00" length="0.17" width="1.00" shape="8570.18,4773.23 8570.14,4773.07"/>
    </edge>
    <edge id=":1141475341_6" function="internal">
        <lane id=":1141475341_6_0" index="0" speed="10.00" length="3.31" shape="8570.14,4773.07 8570.04,4772.62 8570.50,4771.87 8571.23,4771.12 8571.90,4770.50"/>
    </edge>
    <edge id=":1141475341_7" function="internal">
        <lane id=":1141475341_7_0" index="0" speed="10.00" length="1.44" width="1.00" shape="8570.14,4773.07 8570.06,4772.75 8570.15,4772.45 8570.43,4772.34 8570.92,4772.42"/>
    </edge>
    <edge id=":1141475341_3" function="internal">
        <lane id=":1141475341_3_0" index="0" disallow="tram rail_urban rail rail_electric ship" speed="10.00" length="4.54" shape="8565.50,4767.93 8566.65,4768.65 8567.72,4768.93 8568.70,4768.76 8569.59,4768.15"/>
    </edge>
    <edge id=":1141475341_4" function="internal">
        <lane id=":1141475341_4_0" index="0" allow="bicycle" speed="10.00" length="7.04" width="1.00" shape="8565.50,4767.93 8570.92,4772.42"/>
    </edge>
    <edge id=":1141475341_5" function="internal">
        <lane id=":1141475341_5_0" index="0" allow="bicycle" speed="10.00" length="0.19" width="1.00" shape="8565.50,4767.93 8565.55,4768.11"/>
    </edge>
    <edge id=":1141475341_8" function="internal">
        <lane id=":1141475341_8_0" index="0" speed="10.00" length="1.42" width="1.00" shape="8565.55,4768.11 8565.65,4768.40 8565.59,4768.70 8565.31,4768.84 8564.82,4768.80"/>
    </edge>
    <edge id=":1141475342_0" function="internal">
        <lane id=":1141475342_0_0" index="0" disallow="tram rail_urban rail rail_electric ship" speed="10.00" length="8.30" shape="8934.63,4974.55 8938.26,4981.70"/>
        <lane id=":1141475342_0_1" index="1" disallow="tram rail_urban rail rail_electric ship" speed="10.00" length="8.30" shape="8931.63,4975.91 8935.38,4983.32"/>
        <lane id=":1141475342_0_2" index="2" disallow="tram rail_urban rail rail_electric ship" speed="10.00" length="8.30" shape="8928.63,4977.28 8932.51,4984.93"/>
    </edge>
    <edge id=":1141475343_0" function="internal">
        <lane id=":1141475343_0_0" index="0" allow="bicycle" speed="10.00" length="9.43" width="1.00" shape="8581.19,4784.02 8574.55,4777.32"/>
    </edge>
    <edge id=":1141475343_1" function="internal">
        <lane id=":1141475343_1_0" index="0" allow="bicycle" speed="10.00" length="1.61" width="1.00" shape="8581.19,4784.02 8581.11,4783.53 8581.21,4783.24 8581.51,4783.16 8581.99,4783.27"/>
    </edge>
    <edge id=":1141475343_2" function="internal">
        <lane id=":1141475343_2_0" index="0" allow="bicycle" speed="10.00" length="4.18" width="1.00" shape="8581.46,4779.64 8580.89,4780.37 8580.79,4781.22 8581.16,4782.19 8581.99,4783.27"/>
    </edge>
    <edge id=":1141475343_3" function="internal">
        <lane id=":1141475343_3_0" index="0" allow="bicycle" speed="10.00" length="5.33" width="1.00" shape="8579.34,4777.11 8578.04,4777.96 8576.81,4778.28 8575.65,4778.06 8574.55,4777.32"/>
    </edge>
    <edge id=":1141475343_4" function="internal">
        <lane id=":1141475343_4_0" index="0" allow="bicycle" speed="10.00" length="9.49" width="1.00" shape="8575.31,4776.52 8581.99,4783.27"/>
    </edge>
    <edge id=":1141475343_5" function="internal">
        <lane id=":1141475343_5_0" index="0" allow="bicycle" speed="10.00" length="1.61" width="1.00" shape="8575.31,4776.52 8575.42,4777.01 8575.33,4777.30 8575.04,4777.41 8574.55,4777.32"/>
    </edge>
    <edge id=":1141475350_0" function="internal">
        <lane id=":1141475350_0_0" index="0" disallow="tram rail_urban rail rail_electric ship" speed="10.00" length="5.20" shape="8876.89,5041.37 8873.13,5037.78"/>
        <lane id=":1141475350_0_1" index="1" disallow="tram rail_urban rail rail_electric ship" speed="10.00" length="5.20" shape="8879.17,5038.98 8875.41,5035.39"/>
    </edge>
    <edge id=":1141475367_0" function="internal">
        <lane id=":1141475367_0_0" index="0" allow="bicycle" speed="10.00" length="1.61" width="1.00" shape="8745.70,4945.30 8745.80,4945.78 8745.71,4946.08 8745.42,4946.18 8744.93,4946.09"/>
    </edge>
    <edge id=":1141475373_0" function="internal">
        <lane id=":1141475373_0_0" index="0" disallow="tram rail_urban rail rail_electric ship" speed="10.00" length="5.25" shape="8698.56,4867.92 8694.80,4864.28"/>
        <lane id=":1141475373_0_1" index="1" disallow="tram rail_urban rail rail_electric ship" speed="10.00" length="5.25" shape="8700.86,4865.56 8697.08,4861.90"/>
    </edge>
    <edge id=":1141475377_0" function="internal">
        <lane id=":1141475377_0_0" index="0" disallow="tram rail_urban rail rail_electric ship" speed="10.00" length="5.41" shape="8668.80,4838.63 8665.00,4834.75"/>
        <lane id=":1141475377_0_1" index="1" disallow="tram rail_urban rail rail_electric ship" speed="10.00" length="5.41" shape="8671.14,4836.31 8667.38,4832.46"/>
    </edge>
    <edge id=":1141475385_0" function="internal">
        <lane id=":1141475385_0_0" index="0" disallow="tram rail_urban rail rail_electric ship" speed="10.00" length="4.17" shape="8862.94,4857.82 8862.03,4858.84 8861.59,4859.78 8861.63,4860.63 8862.13,4861.40"/>
    </edge>
    <edge id=":1141475385_1" function="internal">
        <lane id=":1141475385_1_0" index="0" allow="bicycle" speed="10.00" length="12.94" width="1.00" shape="8862.94,4857.82 8853.74,4866.92"/>
    </edge>
    <edge id=":1141475385_2" function="internal">
        <lane id=":1141475385_2_0" index="0" allow="bicycle" speed="10.00" length="1.61" width="1.00" shape="8862.94,4857.82 8862.45,4857.90 8862.16,4857.79 8862.07,4857.50 8862.18,4857.01"/>
    </edge>
    <edge id=":1141475385_3" function="internal">
        <lane id=":1141475385_3_0" index="0" allow="bicycle" speed="10.00" length="5.20" width="1.00" shape="8857.49,4857.35 8858.67,4858.02 8859.84,4858.19 8861.02,4857.85 8862.18,4857.01"/>
    </edge>
    <edge id=":1141475385_4" function="internal">
        <lane id=":1141475385_4_0" index="0" disallow="tram rail_urban rail rail_electric ship" speed="10.00" length="5.79" shape="8857.49,4857.35 8858.93,4858.48 8859.89,4859.27 8860.82,4860.12 8862.13,4861.40"/>
        <lane id=":1141475385_4_1" index="1" disallow="tram rail_urban rail rail_electric ship" speed="10.00" length="5.79" shape="8855.45,4859.95 8856.81,4861.01 8857.72,4861.76 8858.58,4862.55 8859.82,4863.75"/>
        <lane id=":1141475385_4_2" index="2" disallow="tram rail_urban rail rail_electric ship" speed="10.00" length="5.79" shape="8853.42,4862.54 8854.69,4863.54 8855.54,4864.24 8856.35,4864.98 8857.50,4866.11"/>
    </edge>
    <edge id=":1141475385_7" function="internal">
        <lane id=":1141475385_7_0" index="0" allow="bicycle" speed="10.00" length="5.12" width="1.00" shape="8853.42,4862.54 8854.41,4863.57 8854.79,4864.64 8854.56,4865.76 8853.74,4866.92"/>
    </edge>
    <edge id=":1141475385_8" function="internal">
        <lane id=":1141475385_8_0" index="0" allow="bicycle" speed="10.00" length="13.00" width="1.00" shape="8852.94,4866.16 8862.18,4857.01"/>
    </edge>
    <edge id=":1141475385_9" function="internal">
        <lane id=":1141475385_9_0" index="0" disallow="tram rail_urban rail rail_electric ship" speed="10.00" length="5.22" shape="8852.94,4866.16 8854.06,4865.28 8855.20,4864.98 8856.35,4865.25 8857.50,4866.11"/>
    </edge>
    <edge id=":1141475385_10" function="internal">
        <lane id=":1141475385_10_0" index="0" allow="bicycle" speed="10.00" length="1.61" width="1.00" shape="8852.94,4866.16 8853.43,4866.05 8853.72,4866.14 8853.82,4866.43 8853.74,4866.92"/>
    </edge>
    <edge id=":1141475397_0" function="internal">
        <lane id=":1141475397_0_0" index="0" disallow="tram rail_urban rail rail_electric ship" speed="10.00" length="5.37" shape="8766.30,4933.79 8762.34,4930.07"/>
        <lane id=":1141475397_0_1" index="1" disallow="tram rail_urban rail rail_electric ship" speed="10.00" length="5.37" shape="8768.51,4931.34 8764.64,4927.71"/>
    </edge>
    <edge id=":1297363763_0" function="internal">
        <lane id=":1297363763_0_0" index="0" allow="bicycle" speed="10.00" length="1.61" width="1.00" shape="9996.20,6210.77 9995.71,6210.83 9995.43,6210.71 9995.35,6210.41 9995.49,6209.93"/>
    </edge>
    <edge id=":1297363763_1" function="internal">
        <lane id=":1297363763_1_0" index="0" allow="bicycle" speed="10.00" length="4.30" width="1.00" shape="9992.40,6209.88 9992.62,6210.85 9993.21,6211.18 9994.17,6210.88 9995.49,6209.93"/>
    </edge>
    <edge id=":1298586279_0" function="internal">
        <lane id=":1298586279_0_0" index="0" disallow="tram rail_urban rail rail_electric ship" speed="10.00" length="5.73" shape="9712.54,5905.15 9715.28,5910.32"/>
        <lane id=":1298586279_0_1" index="1" disallow="tram rail_urban rail rail_electric ship" speed="10.00" length="5.73" shape="9709.68,5906.79 9712.30,5911.75"/>
    </edge>
    <edge id=":1298586340_0" function="internal">
        <lane id=":1298586340_0_0" index="0" disallow="tram rail_urban rail rail_electric ship" speed="10.00" length="5.36" shape="9590.00,5654.08 9593.78,5658.05"/>
        <lane id=":1298586340_0_1" index="1" disallow="tram rail_urban rail rail_electric ship" speed="10.00" length="5.36" shape="9587.69,5656.43 9591.30,5660.24"/>
    </edge>
    <edge id=":1298586344_0" function="internal">
        <lane id=":1298586344_0_0" index="0" disallow="tram rail_urban rail rail_electric ship" speed="10.00" length="8.65" shape="9667.71,5817.43 9670.18,5825.59"/>
        <lane id=":1298586344_0_1" index="1" disallow="tram rail_urban rail rail_electric ship" speed="10.00" length="8.65" shape="9664.52,5818.27 9667.06,5826.67"/>
    </edge>
    <edge id=":1306211549_0" function="internal">
        <lane id=":1306211549_0_0" index="0" disallow="tram rail_urban rail rail_electric ship" speed="10.00" length="5.05" shape="8738.22,4627.74 8737.09,4626.92 8735.97,4626.66 8734.88,4626.96 8733.80,4627.81"/>
    </edge>
    <edge id=":1306211549_1" function="internal">
        <lane id=":1306211549_1_0" index="0" allow="delivery bicycle pedestrian" speed="10.00" length="4.82" shape="8738.22,4627.74 8737.90,4626.29 8738.17,4625.41 8739.04,4625.10 8740.50,4625.36"/>
    </edge>
    <edge id=":1306211549_2" function="internal">
        <lane id=":1306211549_2_0" index="0" allow="delivery bicycle pedestrian" speed="10.00" length="3.49" shape="8738.91,4622.52 8738.76,4623.17 8739.17,4623.95 8739.85,4624.73 8740.50,4625.36"/>
    </edge>
    <edge id=":1306211549_3" function="internal">
        <lane id=":1306211549_3_0" index="0" disallow="tram rail_urban rail rail_electric ship" speed="10.00" length="7.36" shape="8738.91,4622.52 8733.80,4627.81"/>
    </edge>
    <edge id=":1622002046_0" function="internal">
        <lane id=":1622002046_0_0" index="0" disallow="tram rail_urban rail rail_electric ship" speed="10.00" length="9.26" shape="8587.28,4759.78 8581.27,4752.58"/>
        <lane id=":1622002046_0_1" index="1" disallow="tram rail_urban rail rail_electric ship" speed="10.00" length="9.26" shape="8589.74,4757.57 8583.89,4750.57"/>
    </edge>
    <edge id=":1622002046_2" function="internal">
        <lane id=":1622002046_2_0" index="0" disallow="tram rail_urban rail rail_electric ship" speed="10.00" length="7.73" shape="8580.58,4757.30 8581.55,4756.10 8581.98,4754.91 8581.89,4753.74 8581.27,4752.58"/>
        <lane id=":1622002046_2_1" index="1" disallow="tram rail_urban rail rail_electric ship" speed="10.00" length="7.73" shape="8582.90,4759.65 8584.66,4757.41 8585.41,4755.15 8585.15,4752.87 8583.89,4750.57"/>
    </edge>
    <edge id=":1711184987_0" function="internal">
        <lane id=":1711184987_0_0" index="0" disallow="tram rail_urban rail rail_electric ship" speed="10.00" length="6.21" shape="10289.04,6665.00 10289.84,6663.95 10290.14,6662.88 10289.96,6661.77 10289.29,6660.64"/>
        <lane id=":1711184987_0_1" index="1" disallow="tram rail_urban rail rail_electric ship" speed="10.00" length="6.21" shape="10289.04,6665.00 10290.88,6662.95 10291.96,6661.19 10292.30,6659.74 10291.87,6658.58"/>
    </edge>
    <edge id=":1711184987_2" function="internal">
        <lane id=":1711184987_2_0" index="0" allow="delivery bicycle pedestrian" speed="10.00" length="4.82" shape="10289.04,6665.00 10290.50,6664.71 10291.37,6665.01 10291.66,6665.88 10291.37,6667.34"/>
    </edge>
    <edge id=":1730418168_0" function="internal">
        <lane id=":1730418168_0_0" index="0" allow="delivery bicycle pedestrian" speed="10.00" length="4.82" shape="9173.76,4727.80 9172.32,4728.18 9171.43,4727.95 9171.08,4727.09 9171.28,4725.62"/>
    </edge>
    <edge id=":18524630#1-AddedOffRampNode_0" function="internal">
        <lane id=":18524630#1-AddedOffRampNode_0_0" index="0" speed="10.00" length="4.08" shape="8607.71,4740.09 8606.72,4738.81 8606.23,4737.44 8606.25,4735.99 8606.78,4734.46"/>
        <lane id=":18524630#1-AddedOffRampNode_0_1" index="1" speed="10.00" length="4.08" shape="8610.04,4737.76 8609.72,4737.34 8609.56,4736.89 8609.57,4736.42 8609.74,4735.92"/>
    </edge>
    <edge id=":18524630#1-AddedOnRampNode_0" function="internal">
        <lane id=":18524630#1-AddedOnRampNode_0_0" index="0" disallow="tram rail_urban rail rail_electric bicycle pedestrian ship" speed="10.00" length="0.24" shape="9173.76,5307.80 9173.52,5307.54"/>
        <lane id=":18524630#1-AddedOnRampNode_0_1" index="1" disallow="tram rail_urban rail rail_electric bicycle pedestrian ship" speed="10.00" length="0.24" shape="9176.09,5305.46 9176.01,5305.37"/>
    </edge>
    <edge id=":1863513045_0" function="internal">
        <lane id=":1863513045_0_0" index="0" disallow="tram rail_urban rail rail_electric ship" speed="10.00" length="3.85" shape="8767.97,4566.75 8768.98,4566.24 8769.74,4565.96 8770.53,4565.93 8771.61,4566.18"/>
    </edge>
    <edge id=":1878671864_0" function="internal">
        <lane id=":1878671864_0_0" index="0" allow="delivery bicycle pedestrian" speed="10.00" length="5.85" shape="8951.25,4997.48 8949.87,4997.31 8948.48,4997.47 8947.11,4997.96 8945.73,4998.77"/>
    </edge>
    <edge id=":1878671864_1" function="internal">
        <lane id=":1878671864_1_0" index="0" allow="delivery bicycle pedestrian" speed="10.00" length="9.12" shape="8951.25,4997.48 8949.15,4996.69 8947.39,4995.42 8945.98,4993.68 8944.91,4991.47"/>
    </edge>
    <edge id=":1878671864_2" function="internal">
        <lane id=":1878671864_2_0" index="0" allow="delivery bicycle pedestrian" speed="10.00" length="5.09" shape="8943.87,4996.05 8944.74,4995.18 8945.20,4994.13 8945.26,4992.89 8944.91,4991.47"/>
    </edge>
    <edge id=":1878671868_0" function="internal">
        <lane id=":1878671868_0_0" index="0" allow="delivery bicycle pedestrian" speed="10.00" length="5.01" shape="9113.84,5116.96 9112.52,5116.57 9111.40,5116.71 9110.47,5117.35 9109.74,5118.51"/>
    </edge>
    <edge id=":1878671868_1" function="internal">
        <lane id=":1878671868_1_0" index="0" allow="delivery bicycle pedestrian" speed="10.00" length="9.44" shape="9113.84,5116.96 9105.31,5112.92"/>
    </edge>
    <edge id=":1878671868_2" function="internal">
        <lane id=":1878671868_2_0" index="0" allow="delivery bicycle pedestrian" speed="10.00" length="4.82" shape="9113.84,5116.96 9113.05,5115.70 9113.02,5114.77 9113.73,5114.19 9115.20,5113.95"/>
    </edge>
    <edge id=":1878671868_3" function="internal">
        <lane id=":1878671868_3_0" index="0" allow="delivery bicycle pedestrian" speed="10.00" length="9.33" shape="9106.77,5109.96 9115.20,5113.95"/>
    </edge>
    <edge id=":1878671868_4" function="internal">
        <lane id=":1878671868_4_0" index="0" allow="delivery bicycle pedestrian" speed="10.00" length="10.24" shape="9106.77,5109.96 9109.04,5111.53 9110.30,5113.48 9110.53,5115.81 9109.74,5118.51"/>
    </edge>
    <edge id=":1878671868_5" function="internal">
        <lane id=":1878671868_5_0" index="0" allow="delivery bicycle pedestrian" speed="10.00" length="4.82" shape="9106.77,5109.96 9107.51,5111.25 9107.52,5112.17 9106.78,5112.73 9105.31,5112.92"/>
    </edge>
    <edge id=":1878671868_6" function="internal">
        <lane id=":1878671868_6_0" index="0" allow="delivery bicycle pedestrian" speed="10.00" length="5.07" shape="9106.73,5117.17 9107.13,5115.81 9107.02,5114.65 9106.42,5113.69 9105.31,5112.92"/>
    </edge>
    <edge id=":1878671868_7" function="internal">
        <lane id=":1878671868_7_0" index="0" allow="delivery bicycle pedestrian" speed="10.00" length="10.35" shape="9106.73,5117.17 9108.24,5114.77 9110.16,5113.43 9112.48,5113.16 9115.20,5113.95"/>
    </edge>
    <edge id=":1878671868_8" function="internal">
        <lane id=":1878671868_8_0" index="0" allow="delivery bicycle pedestrian" speed="10.00" length="4.82" shape="9106.73,5117.17 9107.99,5116.37 9108.91,5116.33 9109.49,5117.05 9109.74,5118.51"/>
    </edge>
    <edge id=":1878671872_0" function="internal">
        <lane id=":1878671872_0_0" index="0" allow="delivery bicycle pedestrian" speed="10.00" length="1.27" shape="9495.54,5540.87 9494.53,5541.64"/>
    </edge>
    <edge id=":1878671872_1" function="internal">
        <lane id=":1878671872_1_0" index="0" allow="delivery bicycle pedestrian" speed="10.00" length="6.69" shape="9495.54,5540.87 9496.21,5540.92 9497.95,5542.03 9499.88,5543.44 9501.12,5544.38"/>
    </edge>
    <edge id=":1878671872_2" function="internal">
        <lane id=":1878671872_2_0" index="0" allow="delivery bicycle pedestrian" speed="10.00" length="6.23" shape="9497.15,5539.64 9498.22,5541.15 9498.92,5542.23 9499.73,5543.20 9501.12,5544.38"/>
    </edge>
    <edge id=":1878671872_3" function="internal">
        <lane id=":1878671872_3_0" index="0" allow="delivery bicycle pedestrian" speed="10.00" length="4.82" shape="9497.15,5539.64 9497.25,5541.12 9496.84,5541.95 9495.94,5542.12 9494.53,5541.64"/>
    </edge>
    <edge id=":1878671873_0" function="internal">
        <lane id=":1878671873_0_0" index="0" allow="delivery bicycle pedestrian" speed="10.00" length="4.98" shape="9374.96,5380.96 9374.18,5379.86 9373.23,5379.25 9372.09,5379.14 9370.78,5379.53"/>
    </edge>
    <edge id=":1878671873_1" function="internal">
        <lane id=":1878671873_1_0" index="0" allow="delivery bicycle pedestrian" speed="10.00" length="9.37" shape="9374.96,5380.96 9371.04,5372.44"/>
    </edge>
    <edge id=":1878671873_2" function="internal">
        <lane id=":1878671873_2_0" index="0" allow="delivery bicycle pedestrian" speed="10.00" length="4.82" shape="9374.96,5380.96 9375.13,5379.48 9375.68,5378.74 9376.60,5378.73 9377.90,5379.46"/>
    </edge>
    <edge id=":1878671873_3" function="internal">
        <lane id=":1878671873_3_0" index="0" allow="delivery bicycle pedestrian" speed="10.00" length="9.11" shape="9374.09,5371.19 9377.90,5379.46"/>
    </edge>
    <edge id=":1878671873_4" function="internal">
        <lane id=":1878671873_4_0" index="0" allow="delivery bicycle pedestrian" speed="10.00" length="10.16" shape="9374.09,5371.19 9374.78,5373.87 9374.46,5376.16 9373.12,5378.04 9370.78,5379.53"/>
    </edge>
    <edge id=":1878671873_5" function="internal">
        <lane id=":1878671873_5_0" index="0" allow="delivery bicycle pedestrian" speed="10.00" length="4.82" shape="9374.09,5371.19 9373.80,5372.64 9373.20,5373.34 9372.28,5373.27 9371.04,5372.44"/>
    </edge>
    <edge id=":1878671873_6" function="internal">
        <lane id=":1878671873_6_0" index="0" allow="delivery bicycle pedestrian" speed="10.00" length="4.96" shape="9369.43,5376.52 9370.57,5375.79 9371.22,5374.87 9371.38,5373.76 9371.04,5372.44"/>
    </edge>
    <edge id=":1878671873_7" function="internal">
        <lane id=":1878671873_7_0" index="0" allow="delivery bicycle pedestrian" speed="10.00" length="10.13" shape="9369.43,5376.52 9372.08,5375.74 9374.38,5375.97 9376.32,5377.21 9377.90,5379.46"/>
    </edge>
    <edge id=":1878671873_8" function="internal">
        <lane id=":1878671873_8_0" index="0" allow="delivery bicycle pedestrian" speed="10.00" length="4.82" shape="9369.43,5376.52 9370.89,5376.76 9371.61,5377.34 9371.57,5378.26 9370.78,5379.53"/>
    </edge>
    <edge id=":1878671874_0" function="internal">
        <lane id=":1878671874_0_0" index="0" disallow="tram rail_urban rail rail_electric ship" speed="10.00" length="5.05" shape="9364.41,5382.40 9363.24,5383.14 9362.61,5384.08 9362.51,5385.21 9362.94,5386.53"/>
    </edge>
    <edge id=":1878671874_1" function="internal">
        <lane id=":1878671874_1_0" index="0" allow="delivery bicycle pedestrian" speed="10.00" length="4.82" shape="9364.41,5382.40 9362.95,5382.16 9362.23,5381.57 9362.27,5380.65 9363.06,5379.39"/>
    </edge>
    <edge id=":1878671874_2" function="internal">
        <lane id=":1878671874_2_0" index="0" allow="delivery bicycle pedestrian" speed="10.00" length="5.10" shape="9358.85,5377.88 9359.59,5379.04 9360.54,5379.67 9361.69,5379.79 9363.06,5379.39"/>
    </edge>
    <edge id=":1878671874_3" function="internal">
        <lane id=":1878671874_3_0" index="0" disallow="tram rail_urban rail rail_electric ship" speed="10.00" length="9.64" shape="9358.85,5377.88 9362.94,5386.53"/>
        <lane id=":1878671874_3_1" index="1" disallow="tram rail_urban rail rail_electric ship" speed="10.00" length="9.64" shape="9355.84,5379.23 9359.99,5388.00"/>
    </edge>
    <edge id=":1878671877_0" function="internal">
        <lane id=":1878671877_0_0" index="0" allow="delivery bicycle pedestrian" speed="10.00" length="5.31" shape="8963.91,4995.36 8962.78,4994.68 8961.61,4994.53 8960.40,4994.90 8959.15,4995.81"/>
    </edge>
    <edge id=":1878671877_1" function="internal">
        <lane id=":1878671877_1_0" index="0" allow="delivery bicycle pedestrian" speed="10.00" length="6.75" shape="8962.42,4987.44 8962.86,4989.34 8963.50,4990.55 8964.50,4991.56 8966.04,4992.84"/>
    </edge>
    <edge id=":1878671877_2" function="internal">
        <lane id=":1878671877_2_0" index="0" allow="delivery bicycle pedestrian" speed="10.00" length="9.38" shape="8962.42,4987.44 8962.50,4989.70 8961.98,4991.85 8960.86,4993.89 8959.15,4995.81"/>
    </edge>
    <edge id=":1878671893_0" function="internal">